  
       XFOIL         Version 6.99
  
 Calculated polar for: NACA 2515                                       
  
 1 1 Reynolds number fixed          Mach number fixed         
  
 xtrf =   1.000 (top)        1.000 (bottom)  
 Mach =   0.000     Re =     0.000 e 6     Ncrit =   9.000
  
   alpha    CL        CD       CDp       CM     Top_Xtr  Bot_Xtr
  ------ -------- --------- --------- -------- -------- --------
  -0.200   0.2621   0.00000  -0.00129  -0.0665   0.0000   0.0000
  -0.400   0.2373   0.00000  -0.00129  -0.0661   0.0000   0.0000
  -0.600   0.2126   0.00000  -0.00129  -0.0657   0.0000   0.0000
  -0.800   0.1878   0.00000  -0.00129  -0.0654   0.0000   0.0000
  -1.000   0.1631   0.00000  -0.00129  -0.0650   0.0000   0.0000
  -1.200   0.1383   0.00000  -0.00129  -0.0646   0.0000   0.0000
  -1.400   0.1136   0.00000  -0.00129  -0.0642   0.0000   0.0000
  -1.600   0.0888   0.00000  -0.00129  -0.0638   0.0000   0.0000
  -1.800   0.0641   0.00000  -0.00129  -0.0634   0.0000   0.0000
  -2.000   0.0393   0.00000  -0.00128  -0.0630   0.0000   0.0000
   0.000   0.2868   0.00000  -0.00129  -0.0669   0.0000   0.0000
   0.200   0.3115   0.00000  -0.00129  -0.0673   0.0000   0.0000
   0.400   0.3363   0.00000  -0.00129  -0.0677   0.0000   0.0000
   0.600   0.3610   0.00000  -0.00130  -0.0681   0.0000   0.0000
   0.800   0.3857   0.00000  -0.00130  -0.0685   0.0000   0.0000
   1.000   0.4104   0.00000  -0.00130  -0.0689   0.0000   0.0000
   1.200   0.4351   0.00000  -0.00130  -0.0693   0.0000   0.0000
   1.400   0.4598   0.00000  -0.00130  -0.0697   0.0000   0.0000
   1.600   0.4845   0.00000  -0.00130  -0.0701   0.0000   0.0000
   1.800   0.5092   0.00000  -0.00130  -0.0705   0.0000   0.0000
   2.000   0.5339   0.00000  -0.00131  -0.0708   0.0000   0.0000
   2.200   0.5586   0.00000  -0.00131  -0.0712   0.0000   0.0000
   2.400   0.5833   0.00000  -0.00131  -0.0716   0.0000   0.0000
   2.600   0.6079   0.00000  -0.00131  -0.0720   0.0000   0.0000
   2.800   0.6326   0.00000  -0.00131  -0.0724   0.0000   0.0000
   3.000   0.6572   0.00000  -0.00131  -0.0728   0.0000   0.0000
   3.200   0.6819   0.00000  -0.00132  -0.0732   0.0000   0.0000
   3.400   0.7065   0.00000  -0.00132  -0.0736   0.0000   0.0000
   3.600   0.7311   0.00000  -0.00132  -0.0740   0.0000   0.0000
   3.800   0.7557   0.00000  -0.00132  -0.0744   0.0000   0.0000
   4.000   0.7804   0.00000  -0.00132  -0.0748   0.0000   0.0000
   4.200   0.8050   0.00000  -0.00133  -0.0752   0.0000   0.0000
   4.400   0.8295   0.00000  -0.00133  -0.0756   0.0000   0.0000
   4.600   0.8541   0.00000  -0.00133  -0.0760   0.0000   0.0000
   4.800   0.8787   0.00000  -0.00133  -0.0763   0.0000   0.0000
   5.000   0.9032   0.00000  -0.00134  -0.0767   0.0000   0.0000
   5.200   0.9278   0.00000  -0.00134  -0.0771   0.0000   0.0000
   5.400   0.9523   0.00000  -0.00134  -0.0775   0.0000   0.0000
   5.600   0.9769   0.00000  -0.00134  -0.0779   0.0000   0.0000
   5.800   1.0014   0.00000  -0.00135  -0.0783   0.0000   0.0000
   6.000   1.0259   0.00000  -0.00135  -0.0787   0.0000   0.0000
   6.200   1.0504   0.00000  -0.00135  -0.0791   0.0000   0.0000
   6.400   1.0748   0.00000  -0.00136  -0.0795   0.0000   0.0000
   6.600   1.0993   0.00000  -0.00136  -0.0799   0.0000   0.0000
   6.800   1.1237   0.00000  -0.00136  -0.0803   0.0000   0.0000
   7.000   1.1482   0.00000  -0.00137  -0.0806   0.0000   0.0000
   7.200   1.1726   0.00000  -0.00137  -0.0810   0.0000   0.0000
   7.400   1.1970   0.00000  -0.00137  -0.0814   0.0000   0.0000
   7.600   1.2214   0.00000  -0.00138  -0.0818   0.0000   0.0000
   7.800   1.2458   0.00000  -0.00138  -0.0822   0.0000   0.0000
   8.000   1.2701   0.00000  -0.00138  -0.0826   0.0000   0.0000
   8.200   1.2945   0.00000  -0.00139  -0.0830   0.0000   0.0000
   8.400   1.3188   0.00000  -0.00139  -0.0834   0.0000   0.0000
   8.600   1.3431   0.00000  -0.00139  -0.0838   0.0000   0.0000
   8.800   1.3674   0.00000  -0.00140  -0.0841   0.0000   0.0000
   9.000   1.3917   0.00000  -0.00140  -0.0845   0.0000   0.0000
   9.200   1.4160   0.00000  -0.00140  -0.0849   0.0000   0.0000
   9.400   1.4402   0.00000  -0.00141  -0.0853   0.0000   0.0000
   9.600   1.4644   0.00000  -0.00141  -0.0857   0.0000   0.0000
   9.800   1.4887   0.00000  -0.00142  -0.0861   0.0000   0.0000
  10.000   1.5128   0.00000  -0.00142  -0.0864   0.0000   0.0000
