  
       XFOIL         Version 6.99
  
 Calculated polar for: NACA 3409                                       
  
 1 1 Reynolds number fixed          Mach number fixed         
  
 xtrf =   0.000 (top)        1.000 (bottom)  
 Mach =   0.000     Re =     0.500 e 6     Ncrit =   9.000
  
   alpha    CL        CD       CDp       CM     Top_Xtr  Bot_Xtr
  ------ -------- --------- --------- -------- -------- --------
   0.681   0.4000   0.00971   0.00220  -0.0735  -0.0000   1.0000
